[Config General]
description = Base setup for tests that uses unit disk model
network = WirelessA
sim-time-limit = 20s
repeat = 64


# General
*.host*.**.bitrate = 1Mbps
*.host*.ipv4.arp.typename = "GlobalArp"
#*.host*.fsr.helloInterval = 10ms
#*.host*.fsr.updateInterval = 50ms


# Sender
*.hostA.numApps = 1
*.hostA.app[0].typename = "UdpBasicApp"
*.hostA.app[0].destAddresses = "hostB"
*.hostA.app[0].destPort = 5000
*.hostA.app[0].messageLength = 1000B
*.hostA.app[0].sendInterval = exponential(12ms)
*.hostA.app[0].packetName = "UDPData"


# Receiver
*.hostB.numApps = 1
*.hostB.app[0].typename = "UdpSink"
*.hostB.app[0].localPort = 5000


# WLAN
*.host*.wlan[0].typename = "WirelessInterface"

*.host*.wlan[0].mac.typename = "CsmaCaMac"
*.host*.wlan[0].mac.useAck = true
*.host*.wlan[0].mac.ackTimeout = 300us
*.host*.wlan[0].mac.fullDuplex = false
*.host*.wlan[0].mac.headerLength = 23B

*.host*.wlan[0].queue.typename = "DropTailQueue"
*.host*.wlan[0].queue.packetCapacity = -1

*.host*.wlan[0].radio.typename = "UnitDiskRadio"
*.host*.wlan[0].radio.transmitter.communicationRange = 250m
*.host*.wlan[0].radio.transmitter.interferenceRange = 500m
*.host*.wlan[0].radio.receiver.ignoreInterference = false


# Animations
*.hostA.wlan[0].radio.displayCommunicationRange = true
*.hostB.wlan[0].radio.displayCommunicationRange = true

*.visualizer.sceneVisualizer.descriptionFigure = "title"
*.visualizer.mediumVisualizer.displaySignals = false

*.visualizer.physicalLinkVisualizer.displayLinks = true
*.visualizer.physicalLinkVisualizer.fadeOutMode = "simulationTime"
*.visualizer.physicalLinkVisualizer.fadeOutTime = 1ms
*.visualizer.physicalLinkVisualizer.packetFilter = "FsrHello"

*.visualizer.dataLinkVisualizer.displayLinks = true
*.visualizer.dataLinkVisualizer.fadeOutMode = "simulationTime"
*.visualizer.dataLinkVisualizer.fadeOutTime = 1ms
*.visualizer.dataLinkVisualizer.packetFilter = "FsrUpdate"

*.visualizer.networkRouteVisualizer.displayRoutes = true
*.visualizer.networkRouteVisualizer.fadeOutMode = "simulationTime"
*.visualizer.networkRouteVisualizer.fadeOutTime = 10ms
*.visualizer.networkRouteVisualizer.packetFilter = "UDPData*"

#-----------------------------------------------------------------------------