[Config General]
description = Base setup for tests that uses unit disk model
network = WirelessA
sim-time-limit = 20s
repeat = 32


# General
*.host*.**.bitrate = 1Mbps
*.host*.ipv4.arp.typename = "GlobalArp"


# Sender
*.hostA.numApps = 1
*.hostA.app[0].typename = "UdpBasicApp"
*.hostA.app[0].destAddresses = "hostB"
*.hostA.app[0].destPort = 5000
*.hostA.app[0].messageLength = 1000B
*.hostA.app[0].sendInterval = exponential(12ms)
*.hostA.app[0].packetName = "UDPData"


# Receiver
*.hostB.numApps = 1
*.hostB.app[0].typename = "UdpSink"
*.hostB.app[0].localPort = 5000


# WLAN
*.host*.wlan[0].typename = "WirelessInterface"

*.host*.wlan[0].mac.typename = "CsmaCaMac"
*.host*.wlan[0].mac.useAck = true
*.host*.wlan[0].mac.ackTimeout = 300us
*.host*.wlan[0].mac.fullDuplex = false
*.host*.wlan[0].mac.headerLength = 23B

*.host*.wlan[0].queue.typename = "DropTailQueue"
*.host*.wlan[0].queue.packetCapacity = -1

*.host*.wlan[0].radio.typename = "UnitDiskRadio"
*.host*.wlan[0].radio.transmitter.communicationRange = 250m
*.host*.wlan[0].radio.transmitter.interferenceRange = 500m
*.host*.wlan[0].radio.receiver.ignoreInterference = false


# Animations
*.hostA.wlan[0].radio.displayCommunicationRange = true
*.hostB.wlan[0].radio.displayCommunicationRange = true

#*.visualizer.sceneVisualizer.descriptionFigure = "title"
*.visualizer.mediumVisualizer.displaySignals = false

*.visualizer.physicalLinkVisualizer.displayLinks = true
*.visualizer.physicalLinkVisualizer.fadeOutMode = "simulationTime"
*.visualizer.physicalLinkVisualizer.fadeOutTime = 1ms
*.visualizer.physicalLinkVisualizer.packetFilter = "FsrPacket"

*.visualizer.networkRouteVisualizer.displayRoutes = true
*.visualizer.networkRouteVisualizer.fadeOutMode = "simulationTime"
*.visualizer.networkRouteVisualizer.fadeOutTime = 10ms
*.visualizer.networkRouteVisualizer.packetFilter = "UDPData*"

#-----------------------------------------------------------------------------

[Config Mobile]
description = Mobile scenario: area=1000×1000, range=150 m, N hosts, 2 endpoints
network = WirelessMobile
sim-time-limit = 20s
repeat = 32

# — override how many hosts to instantiate —
WirelessMobile.numHosts = 20      # ← change this to vary node count

# — general PHY/MAC settings —
*.host*.wlan[0].typename = "WirelessInterface"
*.host*.wlan[0].mac.typename = "CsmaCaMac"
*.host*.wlan[0].mac.useAck = true
*.host*.wlan[0].mac.ackTimeout = 300us
*.host*.wlan[0].mac.fullDuplex = false
*.host*.wlan[0].mac.headerLength = 23B
*.host*.wlan[0].queue.typename = "DropTailQueue"
*.host*.wlan[0].queue.packetCapacity = -1

# — set the mobile radio’s communication range to 150 m —
*.host*.wlan[0].radio.typename = "UnitDiskRadio"
*.host*.wlan[0].radio.transmitter.communicationRange = 150m
*.host*.wlan[0].radio.transmitter.interferenceRange = 300m
*.host*.wlan[0].radio.receiver.ignoreInterference = false

# — mobility configuration: Random Waypoint inside 1000×1000 m box —
*.host*.mobility.typename = "RandomWaypointMobility"
*.host*.mobility.updateInterval = 100ms
*.host*.mobility.speed = uniform(1mps, 5mps)
*.host*.mobility.constraintAreaMinX = 0m
*.host*.mobility.constraintAreaMinY = 0m
*.host*.mobility.constraintAreaMaxX = 1000m
*.host*.mobility.constraintAreaMaxY = 1000m
*.host*.mobility.constraintAreaMinZ = 0m
*.host*.mobility.constraintAreaMaxZ = 0m

# — by default disable all traffic —
*.host*.numApps = 0

# — app only on host[0] → host[1] —
*.host[0].numApps = 1
*.host[0].app[0].typename = "UdpBasicApp"
*.host[0].app[0].destAddresses = "host[1]"
*.host[0].app[0].destPort = 5000
*.host[0].app[0].messageLength = 1000B
*.host[0].app[0].sendInterval = exponential(12ms)
*.host[0].app[0].packetName = "UDPData"

*.host[1].numApps = 1
*.host[1].app[0].typename = "UdpSink"
*.host[1].app[0].localPort = 5000

# — leave all other settings (visualizer, configurator, etc.) inherited from [Config General] —